Circuit: * C:\Users\44780\Documents\GitHub\EEE-Summer-Project-2020\Draft1.asc

WARNING: Less than two connections to node N003.  This node is used by Q2.
WARNING: Less than two connections to node -30.  This node is used by V2.
Direct Newton iteration for .op point succeeded.

Date: Sun Jun 07 23:23:43 2020
Total elapsed time: 0.116 seconds.

tnom = 27
temp = 27
method = modified trap
totiter = 2104
traniter = 2092
tranpoints = 1047
accept = 1047
rejected = 0
matrix size = 15
fillins = 0
solver = Normal
Matrix Compiler1: 844 bytes object code size  0.6/0.3/[0.3]
Matrix Compiler2: 1.08 KB object code size  0.4/0.4/[0.3]

